19
gdb 108772	3.14035	1.09506	0.87873	5.4142	79.96	-0.2569	-0.0396	0.2173	1344.6115	0.160012	-423.083769	-423.075105	-423.074161	-423.117575	32.095	charge 0 multiplicity 1
C          -0.25111        1.54888       -0.05070
C           0.08769        0.05353        0.04511
C           0.78508       -0.45680       -1.18900
C           2.09093       -0.76771       -1.21313
C           2.74001       -1.37732       -2.40142
O           3.82681       -1.90643       -2.36282
O           2.03684       -1.38402       -3.56729
C           0.89797       -0.51187       -3.66020
C          -0.01688       -0.63864       -2.45415
H           0.66483        2.14533       -0.16985
H          -0.91114        1.76323       -0.90406
H          -0.76466        1.88547        0.86061
H           0.72546       -0.12519        0.92284
H          -0.84056       -0.52440        0.19098
H           2.72923       -0.68817       -0.33155
H           1.25835        0.52619       -3.75356
H           0.39510       -0.79736       -4.59203
H          -0.50817       -1.62623       -2.43613
H          -0.81382        0.11656       -2.52575