19
gdb 64590	3.78951	1.12302	1.11665	2.4574	77.6	-0.2471	-0.0299	0.2172	1171.8787	0.159871	-423.040149	-423.031917	-423.030973	-423.073172	31.609	charge 0 multiplicity 1
O	-0.1075183502	 1.3601550977	 0.0078327935
C	-0.0672107789	-0.0247803557	-0.0002411524
C	 1.0375458649	-0.5721278499	-0.8061957756
O	 1.8179307107	 0.1473343551	-1.3927995667
C	-0.4802031109	-0.7974523098	 1.2520891501
C	-1.1453237881	 0.0516639262	 2.3360362711
C	-2.6166626479	 0.2157755014	 1.8756419576
C	-2.6187166472	 0.0204308686	 0.3376010515
C	-1.373982555	-0.81639894	 0.039812414
H	 0.6414396917	 1.6292404225	-0.5485678427
H	 1.1143996891	-1.677812993	-0.8455767694
H	 0.1155717405	-1.6588131529	 1.5352824768
H	-1.0743575727	-0.4393928201	 3.309783827
H	-0.6460058696	 1.0214113097	 2.4177799789
H	-3.2276457902	-0.5671599044	 2.3383398147
H	-3.0434960603	 1.1767233861	 2.1753163764
H	-3.5204506276	-0.4912448671	-0.0079723865
H	-2.5635662141	 0.9807628186	-0.1831017686
H	-1.4553767544	-1.692114693	-0.5954714197
